/*--------------------------------*- C++ -*----------------------------------*\
  =========                 |
  \\      /  F ield         | OpenFOAM: The Open Source CFD Toolbox
   \\    /   O peration     | Website:  https://openfoam.org
    \\  /    A nd           | Version:  11
     \\/     M anipulation  |
\*---------------------------------------------------------------------------*/
FoamFile
{
    format      ascii;
    class       dictionary;
    location    "system";
    object      fvSolution;
}
// * * * * * * * * * * * * * * * * * * * * * * * * * * * * * * * * * * * * * //

solvers
{
    "alpha.*"
    {
        nAlphaCorr      1;
        nAlphaSubCycles 3;
    }

    p_rgh
    {
        solver          GAMG;
        smoother        DIC;
        tolerance       1e-8;
        relTol          0.01;
        maxIter         20;
        minIter         2;
    }

    p_rghFinal
    {
        $p_rgh;
        relTol          0;
    }

    "U.*"
    {
        solver          PBiCGStab;
        smoother        DILU;
        tolerance       1e-12;
        relTol          0;
        minIter         1;
    }

    "(e|h).*"
    {
        solver          PBiCGStab;
        preconditioner  DILU;
        tolerance       1e-12;
        relTol          0.001;
        minIter         1;
        maxIter         20;
    }

    "kappai.*"
    {
        solver          PBiCGStab;
        preconditioner  DILU;
        tolerance       1e-6;
        relTol          0;
    }
}

PIMPLE
{
    nOuterCorrectors    2;
    nCorrectors         1;
    nNonOrthogonalCorrectors 0;
    nEnergyCorrectors   1;

    residuals
    {

    }

    faceMomentum        no;
    VmDdtCorrection     yes;
    dragCorrection      yes;
    partialElimination  no;
}

relaxationFactors
{
    fields
    {
        thermalPhaseChange:dmdtf    1.0;
    }

    equations
    {
        ".*"            1;
    }
}


// ************************************************************************* //
